/*--------------------------------*- C++ -*----------------------------------*\
| =========                 |                                                 |
| \\      /  F ield         | OpenFOAM: The Open Source CFD Toolbox           |
|  \\    /   O peration     | Version:  2206                                  |
|   \\  /    A nd           | Website:  www.openfoam.com                      |
|    \\/     M anipulation  |                                                 |
\*---------------------------------------------------------------------------*/
FoamFile
{
    version     2.0;
    format      ascii;
    arch        "LSB;label=32;scalar=64";
    class       extendedFeatureEdgeMesh;
    location    "constant/extendedFeatureEdgeMesh";
    object      bunny.extendedFeatureEdgeMesh;
}
// * * * * * * * * * * * * * * * * * * * * * * * * * * * * * * * * * * * * * //

// points

806
(
(3.38358 2.03595 12.9189)
(4.56994 3.08823 12.9189)
(5.07803 3.11819 13.445)
(5.7618 3.61436 13.9712)
(6.1303 4.13898 13.9712)
(1.02251 26.2383 102.363)
(1.74458 26.2383 102.363)
(24.2105 12.0326 108.676)
(-1.23565 -23.2187 11.4272)
(-0.183369 -23.4338 11.8666)
(0.868912 -23.2954 12.9189)
(25.0713 4.5162 103.415)
(25.0713 5.10307 104.467)
(13.6038 -15.0447 68.0797)
(27.1759 6.62682 106.572)
(28.2281 7.16252 106.572)
(30.3327 10.8617 110.781)
(34.5418 23.2707 112.885)
(17.7054 44.1271 106.238)
(3.88297 37.8134 110.781)
(5.35182 39.918 110.781)
(-1.23565 6.06729 90.2614)
(6.65644 -14.8005 81.0584)
(-0.709507 -20.0338 88.6628)
(21.9145 12.5587 20.2559)
(29.0701 9.56731 109.593)
(-15.9675 -29.5324 63.5355)
(5.60416 3.24002 12.9189)
(5.60416 3.08823 13.9559)
(5.07803 3.08823 13.4845)
(5.60416 3.29579 13.445)
(6.65644 4.37183 13.9712)
(6.31384 4.1405 14.4973)
(7.18258 5.09251 15.0234)
(-1.23565 6.24506 90.4702)
(4.53601 -17.9573 79.2124)
(4.00317 -19.0096 86.5784)
(-1.23565 28.3429 102.951)
(0.343128 -23.2187 11.8666)
(0.831429 -24.271 12.9189)
(10.5448 -10.5914 11.8666)
(26.1236 5.22837 104.467)
(27.4501 6.24506 104.467)
(30.3327 9.94686 108.676)
(24.2356 11.9502 108.624)
(-3.3402 33.6043 104.771)
(28.2281 10.4542 110.619)
(4.41879 10.4542 87.6306)
(5.07803 7.96071 89.7352)
(5.07803 8.34962 89.066)
(2.97347 10.4542 89.5613)
(6.13225 7.39617 91.1649)
(21.9145 12.7247 20.2848)
(2.97347 35.7089 109.426)
(0.868912 37.8134 108.89)
(34.4488 24.0151 112.851)
(-5.08691 -2.94758 5.27509)
(-5.32332 -2.17316 5.27509)
(-5.22176 -1.39875 5.27509)
(74.3976 -14.8005 5.27509)
(73.9732 -16.6272 5.27509)
(74.0969 -12.9738 5.27509)
(19.8099 -35.1947 5.27509)
(19.6182 -35.0809 5.27509)
(20.1572 -35.275 5.27509)
(-3.3402 -23.4505 5.27509)
(-3.43305 -23.2187 5.27509)
(-3.34666 -22.1308 5.27509)
(-3.14656 -23.8266 5.27509)
(-2.78725 -24.271 5.27509)
(-3.19079 1.29716 5.27509)
(-2.91355 1.43367 5.27509)
(-3.3402 1.16417 5.27509)
(-5.1738 -1.12089 5.27509)
(-4.75375 -0.346464 5.27509)
(21.9145 -35.6099 5.27509)
(21.5672 -35.5439 5.27509)
(22.2618 -35.5969 5.27509)
(-3.35031 -21.1142 5.27509)
(58.0863 0.136435 5.27509)
(58.3523 -0.0686035 5.27509)
(57.6919 0.32051 5.27509)
(73.6433 -10.5914 5.27509)
(73.4536 -19.0096 5.27509)
(17.7921 -33.6743 5.27509)
(17.7054 -33.57 5.27509)
(17.8782 -33.7415 5.27509)
(20.8622 -35.4823 5.27509)
(-4.72315 -3.99986 5.27509)
(-5.04967 -3.22544 5.27509)
(2.97347 -28.4019 5.27509)
(2.19905 -28.2714 5.27509)
(3.74789 -28.3805 5.27509)
(-0.957787 3.27322 5.27509)
(-0.709507 3.3705 5.27509)
(-0.431648 3.4213 5.27509)
(-2.28793 2.46064 5.27509)
(-2.20626 2.56209 5.27509)
(-1.9311 2.77289 5.27509)
(-2.44854 2.17898 5.27509)
(-2.50222 2.03595 5.27509)
(-2.61446 1.75809 5.27509)
(55.0315 10.4542 5.27509)
(55.4247 9.67261 5.27509)
(54.7728 10.7714 5.27509)
(13.8582 15.4772 5.27509)
(14.1832 15.7156 5.27509)
(14.5485 15.8896 5.27509)
(61.8712 -27.4278 5.27509)
(60.6627 -27.4917 5.27509)
(63.994 -26.8681 5.27509)
(22.9668 -35.5786 5.27509)
(23.6717 -35.5041 5.27509)
(65.9394 -2.17316 5.27509)
(67.975 -3.55143 5.27509)
(64.8277 -1.71308 5.27509)
(55.9817 4.1405 5.27509)
(56.0506 3.79318 5.27509)
(56.0513 3.08823 5.27509)
(51.0309 13.762 5.27509)
(51.3783 13.6271 5.27509)
(51.6359 13.4738 5.27509)
(13.4963 15.2495 5.27509)
(13.4066 15.1585 5.27509)
(13.0128 14.7696 5.27509)
(-1.76178 2.90246 5.27509)
(55.5874 9.34328 5.27509)
(55.6582 9.1063 5.27509)
(48.8982 14.4356 5.27509)
(49.2737 14.3624 5.27509)
(49.621 14.236 5.27509)
(68.2147 -24.7938 5.27509)
(65.8323 -26.031 5.27509)
(68.9464 -24.2084 5.27509)
(-4.5976 -0.0686035 5.27509)
(49.2737 -32.2088 5.27509)
(48.9959 -32.3238 5.27509)
(50.0263 -31.7089 5.27509)
(-1.36375 -10.971 5.27509)
(-1.72572 -10.5914 5.27509)
(-2.0278 -10.1657 5.27509)
(-3.45465 -8.14509 5.27509)
(-3.76709 -7.43456 5.27509)
(-3.9899 -6.66014 5.27509)
(12.7069 14.3854 5.27509)
(12.9072 14.6633 5.27509)
(11.8367 12.5587 5.27509)
(1.92119 -28.2271 5.27509)
(1.14677 -27.9657 5.27509)
(22.1923 18.0264 5.27509)
(22.9668 18.1243 5.27509)
(23.7412 18.1245 5.27509)
(-3.40263 1.09896 5.27509)
(-0.881448 -26.5608 5.27509)
(-1.07358 -26.3756 5.27509)
(-1.14992 -26.2774 5.27509)
(-1.23565 -11.2352 5.27509)
(0.0372329 -12.6823 5.27509)
(-4.39248 0.20292 5.27509)
(-4.21813 0.381271 5.27509)
(-4.44523 0.129059 5.27509)
(56.0068 7.32931 5.27509)
(56.0063 6.57956 5.27509)
(55.9173 8.07906 5.27509)
(0.868912 -27.8656 5.27509)
(0.728657 -27.7932 5.27509)
(0.0355273 -27.4278 5.27509)
(51.7681 13.4108 5.27509)
(52.2714 13.1277 5.27509)
(52.7581 12.7753 5.27509)
(55.8741 8.34962 5.27509)
(55.7628 8.74398 5.27509)
(53.2691 12.4169 5.27509)
(53.4828 12.2326 5.27509)
(53.7753 11.9142 5.27509)
(70.3261 -23.2187 5.27509)
(70.7731 -22.7915 5.27509)
(72.4238 -20.5909 5.27509)
(64.0056 -26.8667 5.27509)
(73.369 -19.1914 5.27509)
(7.46044 -28.1918 5.27509)
(7.18258 -28.2052 5.27509)
(8.23486 -28.0427 5.27509)
(50.326 14.0418 5.27509)
(11.7221 12.2809 5.27509)
(11.4202 10.4542 5.27509)
(56.2649 2.03595 5.27509)
(56.4684 1.73822 5.27509)
(56.788 1.12596 5.27509)
(47.1692 -33.1644 5.27509)
(46.8913 -33.2169 5.27509)
(45.0646 -33.4736 5.27509)
(6.1303 -28.3102 5.27509)
(5.35588 -28.3223 5.27509)
(6.90472 -28.2165 5.27509)
(14.8264 16.0206 5.27509)
(15.6008 16.3758 5.27509)
(16.4699 16.7151 5.27509)
(0.699504 3.75211 5.27509)
(0.868912 3.79505 5.27509)
(0.349542 3.61812 5.27509)
(56.0536 6.24506 5.27509)
(56.0671 5.89774 5.27509)
(56.02 5.19279 5.27509)
(54.4108 11.2734 5.27509)
(-2.06959 -19.0096 5.27509)
(-1.88788 -18.6765 5.27509)
(-1.37468 -17.9571 5.27509)
(1.58306 3.9252 5.27509)
(1.92119 3.98948 5.27509)
(2.19905 4.01399 5.27509)
(2.97347 4.02769 5.27509)
(53.0932 12.5587 5.27509)
(56.8067 1.10273 5.27509)
(57.4235 0.595318 5.27509)
(54.2918 11.4069 5.27509)
(3.32079 4.00222 5.27509)
(30.0397 16.6758 5.27509)
(30.3327 16.5385 5.27509)
(29.7848 16.7678 5.27509)
(-1.37249 -17.954 5.27509)
(-1.23565 -17.6786 5.27509)
(-0.726432 -16.9051 5.27509)
(24.019 18.1232 5.27509)
(24.2654 18.0999 5.27509)
(25.0398 17.9748 5.27509)
(24.019 -35.4855 5.27509)
(24.3664 -35.4361 5.27509)
(25.0713 -35.3222 5.27509)
(25.7763 -35.1957 5.27509)
(-2.26189 -19.3901 5.27509)
(48.2025 14.5642 5.27509)
(-4.63565 -4.27772 5.27509)
(-4.46638 -4.84756 5.27509)
(68.2147 -3.72685 5.27509)
(69.2281 -4.731 5.27509)
(71.0531 -6.38228 5.27509)
(-1.69217 2.93994 5.27509)
(-1.41282 3.08823 5.27509)
(-1.23565 3.16757 5.27509)
(-0.183369 3.48366 5.27509)
(-4.14851 0.457535 5.27509)
(-3.96985 0.617904 5.27509)
(-2.70212 1.61263 5.27509)
(1.03798 3.83953 5.27509)
(63.7277 -1.32162 5.27509)
(64.0056 -1.43535 5.27509)
(61.9011 -0.916971 5.27509)
(55.9686 4.48783 5.27509)
(-2.42822 -9.72821 5.27509)
(-2.61602 -9.50245 5.27509)
(-3.06254 -8.83918 5.27509)
(4.02575 -28.3868 5.27509)
(4.80017 -28.3292 5.27509)
(0.3369 3.61436 5.27509)
(0.342773 3.61636 5.27509)
(-2.70304 -24.3869 5.27509)
(-2.28793 -24.8545 5.27509)
(-2.15189 -25.0164 5.27509)
(-1.90929 -25.3233 5.27509)
(-3.5402 0.983673 5.27509)
(-3.75564 0.797703 5.27509)
(73.4927 -10.239 5.27509)
(72.4238 -8.41446 5.27509)
(71.0548 -6.38443 5.27509)
(60.0744 -0.596547 5.27509)
(5.12722 4.08516 5.27509)
(5.29224 4.1405 5.27509)
(6.01747 4.29881 5.27509)
(16.4422 -31.8476 5.27509)
(-4.52038 0.033331 5.27509)
(-4.08072 -6.38228 5.27509)
(-4.26608 -5.60786 5.27509)
(-1.76747 -25.4972 5.27509)
(-1.23565 -26.1735 5.27509)
(47.6061 14.6633 5.27509)
(47.9813 14.5945 5.27509)
(47.1692 14.715 5.27509)
(44.7867 -33.4751 5.27509)
(42.96 -33.3252 5.27509)
(26.1236 -35.145 5.27509)
(26.5879 -35.0497 5.27509)
(27.2234 -34.9113 5.27509)
(27.6585 -34.8113 5.27509)
(-0.183369 -27.2782 5.27509)
(-0.102077 -27.3352 5.27509)
(-3.86634 0.709793 5.27509)
(-4.39248 -5.10638 5.27509)
(6.40816 4.46619 5.27509)
(7.18258 4.75245 5.27509)
(6.1303 4.33908 5.27509)
(19.0355 17.4476 5.27509)
(19.8099 17.6453 5.27509)
(20.2406 17.7264 5.27509)
(55.6756 9.06061 5.27509)
(27.9503 17.4188 5.27509)
(28.2281 17.3464 5.27509)
(29.0026 17.0808 5.27509)
(27.1759 17.5752 5.27509)
(50.1622 -31.637 5.27509)
(50.3042 -31.5511 5.27509)
(51.3783 -30.6786 5.27509)
(3.49961 3.97763 5.27509)
(64.7468 -1.67442 5.27509)
(-3.3402 -8.41601 5.27509)
(-3.3064 -8.47989 5.27509)
(-4.33866 -5.31096 5.27509)
(5.07803 -28.3267 5.27509)
(45.8879 14.831 5.27509)
(28.2281 -34.6923 5.27509)
(27.8589 -34.767 5.27509)
(28.5755 -34.6022 5.27509)
(60.6021 -27.5051 5.27509)
(59.7965 -27.5167 5.27509)
(51.8134 -30.4044 5.27509)
(53.0442 -29.5324 5.27509)
(29.2804 -34.4006 5.27509)
(-3.14921 -20.7572 5.27509)
(-2.74059 -20.0814 5.27509)
(-2.45795 -19.6667 5.27509)
(-2.81406 1.48966 5.27509)
(16.2098 -31.637 5.27509)
(-2.77398 1.50981 5.27509)
(15.1175 -30.5348 5.27509)
(13.9323 -29.5324 5.27509)
(15.6008 -30.8999 5.27509)
(29.9854 -34.1813 5.27509)
(16.6026 16.7678 5.27509)
(16.6531 16.7847 5.27509)
(16.8363 16.8379 5.27509)
(17.5962 17.0638 5.27509)
(-3.30312 -8.48683 5.27509)
(36.9937 15.3125 5.27509)
(37.6987 15.3216 5.27509)
(38.4036 15.3019 5.27509)
(16.1643 -31.5972 5.27509)
(42.6822 -33.3096 5.27509)
(40.8555 -33.1368 5.27509)
(33.4895 -33.4358 5.27509)
(32.7846 -33.576 5.27509)
(32.4373 -33.6291 5.27509)
(36.2574 15.333 5.27509)
(36.6464 15.317 5.27509)
(35.5385 15.3328 5.27509)
(45.0809 14.9024 5.27509)
(-3.3402 -21.0952 5.27509)
(8.51272 -28.0401 5.27509)
(9.28714 -28.0067 5.27509)
(10.0616 -28.1142 5.27509)
(10.7118 -28.237 5.27509)
(10.3394 -28.1457 5.27509)
(11.3917 -28.377 5.27509)
(57.9698 -27.7253 5.27509)
(32.1594 15.9165 5.27509)
(32.4373 15.8332 5.27509)
(31.385 16.1138 5.27509)
(26.898 17.6296 5.27509)
(26.1236 17.7798 5.27509)
(3.67842 3.96958 5.27509)
(4.02575 3.95054 5.27509)
(53.4828 -29.2914 5.27509)
(55.1522 -28.526 5.27509)
(21.9145 18.0049 5.27509)
(0.059432 -12.9738 5.27509)
(0.0416131 -12.6959 5.27509)
(0.299983 -14.8005 5.27509)
(30.3327 -34.0895 5.27509)
(30.6185 -34.0283 5.27509)
(31.3235 -33.8634 5.27509)
(31.6577 -33.7933 5.27509)
(33.2659 15.6579 5.27509)
(33.4895 15.6036 5.27509)
(32.9932 15.7156 5.27509)
(29.2804 16.9864 5.27509)
(17.7054 17.1 5.27509)
(17.9832 17.1812 5.27509)
(18.7576 17.3808 5.27509)
(20.6732 17.8201 5.27509)
(20.8622 17.8546 5.27509)
(21.288 17.92 5.27509)
(21.8884 18.0018 5.27509)
(13.4963 -29.2905 5.27509)
(-4.33438 -5.33 5.27509)
(40.5776 -33.1281 5.27509)
(38.7509 -33.1019 5.27509)
(34.5418 15.4064 5.27509)
(34.8197 15.3919 5.27509)
(25.8728 17.8201 5.27509)
(25.0713 17.9703 5.27509)
(31.907 -33.7415 5.27509)
(32.3873 -33.6373 5.27509)
(38.4036 -33.1103 5.27509)
(37.6987 -33.1292 5.27509)
(36.9937 -33.165 5.27509)
(55.5874 -28.3165 5.27509)
(40.5776 15.2252 5.27509)
(40.8555 15.2155 5.27509)
(42.6822 15.0882 5.27509)
(38.7509 15.2945 5.27509)
(36.6464 -33.1751 5.27509)
(11.6156 -28.4815 5.27509)
(13.1561 -29.1387 5.27509)
(32.4425 15.8319 5.27509)
(36.299 -33.1954 5.27509)
(35.5941 -33.2321 5.27509)
(34.8891 -33.2769 5.27509)
(7.38105 4.91036 5.27509)
(8.85842 6.01464 5.27509)
(56.183 2.38327 5.27509)
(29.3034 16.9782 5.27509)
(31.1071 16.2151 5.27509)
(34.5418 -33.2981 5.27509)
(-0.150536 3.49229 5.27509)
(10.8136 8.56032 5.27509)
(11.3917 10.3792 5.27509)
(11.4187 10.4464 5.27509)
(4.7307 4.03564 5.27509)
(5.07803 4.0755 5.27509)
(4.55188 4.01301 5.27509)
(34.1945 -33.3462 5.27509)
(59.7965 -0.476905 5.27509)
(10.5358 8.11951 5.27509)
(10.7061 8.34962 5.27509)
(9.28714 6.37095 5.27509)
(59.7847 -0.471075 5.27509)
(4.37307 3.99039 5.27509)
(42.96 15.07 5.27509)
(44.7867 14.9281 5.27509)
(45.0646 14.904 5.27509)
(55.8652 -28.2296 5.27509)
(9.15612 6.24506 5.27509)
(57.6919 -27.7882 5.27509)
(9.24042 6.3232 5.27509)
(34.264 15.4483 5.27509)
(0.277784 -14.9001 5.27509)
(0.0516559 -15.3513 5.27509)
(-15.9675 -29.5394 63.9544)
(-15.9675 -29.5324 64.0029)
(26.6497 -34.838 13.9712)
(26.1236 -34.821 13.9712)
(27.0894 -34.7938 13.9712)
(-15.9675 -29.516 63.4282)
(3.49961 2.28482 12.9189)
(3.7458 2.56209 12.9189)
(4.02575 2.77747 12.9189)
(5.96854 3.61436 13.445)
(6.1303 3.74976 13.445)
(6.1512 4.1405 13.9712)
(6.75144 4.66665 15.0234)
(7.18258 5.04407 14.4973)
(-0.709507 -24.271 11.9079)
(-0.772552 -24.271 11.8666)
(-0.183369 -24.271 12.2447)
(2.97347 1.50981 12.7827)
(3.49961 2.03595 13.0247)
(-12.8107 2.03595 32.6429)
(-12.8107 1.77602 32.386)
(-15.9908 -7.96069 33.9645)
(-15.9761 -8.48683 33.9645)
(-15.9675 -7.68256 33.9645)
(7.70872 18.8533 51.8532)
(7.18258 18.7948 51.8532)
(8.23486 18.859 51.8532)
(-0.691757 33.0782 86.0522)
(-0.414322 33.6043 86.0522)
(11.4387 -17.9573 69.7419)
(11.47 -17.9573 69.2158)
(9.81327 -19.0096 71.6354)
(9.64102 -19.0096 71.8465)
(2.97347 38.8657 87.743)
(2.97347 39.0952 88.1568)
(3.78437 -19.0096 85.5261)
(3.94883 -19.0096 86.0522)
(3.87613 -19.0096 87.1045)
(3.542 -19.0096 87.6306)
(-0.709507 -20.0619 88.664)
(-1.23565 -20.0619 88.6765)
(-0.183369 -20.0619 88.5872)
(-1.23565 -20.0527 88.6829)
(-0.709507 -20.0332 88.6829)
(-0.183369 -19.931 88.6829)
(1.39505 26.2383 102.379)
(0.868912 26.2732 102.363)
(1.92119 26.293 102.363)
(30.3327 17.294 57.0307)
(30.3327 17.2653 57.1146)
(24.5452 11.5381 108.676)
(24.5729 11.5065 108.676)
(24.0472 12.5587 108.676)
(48.2214 22.7445 41.8565)
(48.7476 22.5564 41.8565)
(48.7987 22.5554 41.8565)
(-15.9675 -31.6695 69.2158)
(-15.9675 -31.6443 68.6896)
(-15.9675 -31.637 69.6581)
(42.96 -40.8693 43.435)
(43.4862 -40.9123 43.435)
(44.0123 -40.7694 43.435)
(19.8099 -35.9891 8.70978)
(19.8099 -35.8604 7.6575)
(19.8099 -35.9875 9.76206)
(-3.76819 -23.2187 6.60522)
(-3.51981 -23.2187 5.55294)
(-3.88042 -23.2187 7.6575)
(-3.73123 -23.2187 8.70978)
(-3.3402 -23.2187 9.58199)
(-3.21991 -23.2187 9.76206)
(-2.28793 -23.2187 10.7461)
(-2.21326 -23.2187 10.8143)
(0.954166 -23.2187 12.9189)
(-1.23565 -22.5734 10.8143)
(64.0092 -6.90842 68.6922)
(64.0098 -6.38228 68.6896)
(64.0157 -7.43456 68.6896)
(-5.44476 3.08823 90.624)
(-5.44476 4.1405 90.7727)
(-1.23565 2.03595 22.9473)
(-0.183369 2.03595 22.5765)
(-4.94592 16.7678 87.6306)
(-4.67571 16.9929 87.1842)
(4.02575 11.5065 64.0178)
(4.05663 11.4971 63.7072)
(-15.9794 -31.637 68.6896)
(-15.9705 -31.6469 69.0633)
(-10.7062 -32.8214 67.6374)
(-11.1019 -32.7263 68.2434)
(12.7439 14.6633 5.55294)
(12.444 14.6633 6.2291)
(-0.802773 5.71003 90.0338)
(4.951 3.13824 13.1918)
(-15.8803 -29.5262 63.8927)
(-19.1244 -10.5914 44.9907)
(-19.1244 -10.5914 45.2987)
(-20.1767 -15.8528 75.3526)
(-20.1767 -15.8528 75.6455)
(28.2281 14.6633 89.6145)
(28.2281 13.611 89.4015)
(-13.9212 3.17106 55.5362)
(-13.863 3.39629 56.0623)
(-13.863 3.11122 55.01)
(-2.28793 27.8636 85.5261)
(-2.16279 28.3429 85.5261)
(-1.84317 29.3952 85.5261)
(-1.48271 30.4475 85.5261)
(-1.23565 31.0371 85.5261)
(-1.01802 31.4997 85.5261)
(-0.857189 31.4997 86.5784)
(-0.686806 32.552 86.5784)
(8.23486 15.7156 31.8162)
(7.70872 15.7317 31.8264)
(7.18258 15.7156 31.7725)
(-3.3402 31.7743 104.467)
(-3.53386 32.552 104.467)
(-3.45746 33.6043 104.467)
(29.7203 23.0815 26.5985)
(29.2804 23.0815 27.0337)
(5.07803 -22.1665 60.3341)
(5.07803 -22.1665 61.0412)
(29.2804 26.2383 34.7042)
(29.2804 26.0744 33.9645)
(28.2281 25.227 36.069)
(28.2281 25.1861 36.2278)
(-3.3402 17.8201 98.5396)
(-3.3402 16.7678 98.2552)
(26.1236 5.01115 103.415)
(26.0253 5.19279 104.467)
(27.1759 5.91444 104.467)
(13.4963 -14.9567 68.6896)
(13.4963 -15.3412 67.6374)
(28.2281 7.10175 105.519)
(27.3993 6.24506 105.519)
(27.1759 6.24506 105.896)
(20.8622 -10.5914 68.7195)
(21.4705 -10.5914 68.6896)
(29.2804 8.34962 107.1)
(29.2148 8.34962 106.572)
(29.9534 9.4019 108.676)
(29.2804 8.72607 108.676)
(78.7375 -3.38718 20.2848)
(78.7375 -3.22544 20.6967)
(4.58105 -18.1831 78.707)
(52.4305 13.611 7.65748)
(52.4306 13.611 7.6575)
(-1.598 27.8561 102.618)
(-3.3402 30.1165 103.415)
(-3.3402 29.3952 102.913)
(6.1303 -15.8528 83.5161)
(6.1768 -15.9088 84.0718)
(-1.23565 32.552 106.249)
(-1.23565 31.603 105.519)
(-2.94203 33.6043 105.519)
(-2.28793 33.6043 106.302)
(-0.183369 35.7089 108.445)
(-1.07746 35.7089 107.624)
(27.1347 8.34962 108.676)
(27.1759 8.34962 108.692)
(28.2281 8.34962 108.83)
(28.2281 9.24767 109.729)
(28.2281 9.4019 109.861)
(29.5009 10.4542 110.781)
(5.07803 -2.17316 92.8865)
(5.09433 -2.17316 92.892)
(0.141857 36.7611 108.676)
(0.711895 37.8134 108.676)
(1.66439 38.8657 108.676)
(1.92119 39.0907 108.676)
(2.97347 39.8755 108.676)
(41.3075 11.7556 63.5579)
(40.8555 12.0866 63.4282)
(36.6464 20.977 96.0223)
(36.6464 19.9247 95.8655)
(32.4373 23.0815 94.182)
(32.4373 24.1338 94.9053)
(32.4373 24.2537 94.9966)
(30.3327 10.4542 110.216)
(30.5674 10.4542 109.729)
(31.385 12.1987 110.781)
(30.9517 11.5065 110.781)
(31.5707 12.5587 110.781)
(32.0246 13.611 110.781)
(32.3776 14.6633 110.781)
(32.4373 14.8702 110.781)
(34.5418 23.0815 112.851)
(34.5695 24.1338 112.885)
(34.5418 24.2845 112.885)
(34.5418 25.1861 112.713)
(34.5418 27.2906 111.534)
(34.5418 26.9945 111.833)
(78.7375 -22.2011 27.6508)
(78.7375 -22.5795 26.5985)
(38.7509 -35.8461 53.6745)
(36.6464 -35.8461 53.2386)
(2.97347 8.34962 89.5211)
(5.07803 6.24506 91.702)
(3.89069 6.82177 90.3728)
(3.9574 12.5587 89.7352)
(2.97347 10.9321 89.7352)
(3.17026 11.9858 90.2615)
(5.07803 25.1861 83.2323)
(5.07803 23.0815 83.3568)
(5.07803 27.2906 83.292)
(21.6201 12.5587 20.2848)
(22.7989 13.0734 19.2277)
(24.019 3.56303 100.258)
(24.019 3.88144 102.363)
(28.2281 8.21111 108.676)
(17.7054 15.9979 102.363)
(18.7226 16.7678 102.363)
(9.28714 25.1861 99.621)
(9.28714 25.9707 100.258)
(13.4963 31.4997 105.835)
(13.4963 32.0092 106.572)
(22.7442 18.8724 106.572)
(24.019 20.6992 106.572)
(28.8174 10.4542 110.781)
(30.3327 12.5587 112.011)
(30.3327 14.6633 112.589)
(30.3327 16.7678 112.652)
(30.3327 18.8724 112.287)
(0.868912 35.7089 109.036)
(0.156212 35.7089 108.676)
(30.3327 20.977 112.067)
(17.7054 43.8843 96.0489)
(17.7054 42.454 93.9443)
(17.7054 43.9925 106.572)
(17.7054 42.6368 108.676)
(2.97347 37.8134 110.39)
(5.07803 36.9835 110.781)
(5.07803 39.7274 110.781)
(5.07803 37.8134 111.229)
(9.91085 -10.2059 11.4017)
(7.18258 37.8134 111.77)
(9.28714 37.8134 112.142)
(7.18258 39.918 111.751)
(9.28714 39.918 112.245)
(11.3917 37.8134 112.306)
(13.4963 37.8134 112.11)
(11.3917 39.918 112.402)
(13.4963 39.918 112.181)
(13.4963 35.7089 111.012)
(14.8069 35.7089 110.781)
(17.7054 42.0225 109.242)
(30.9124 12.5587 91.8398)
(32.4373 14.6633 91.9131)
(17.7054 -31.4755 28.7031)
(17.7054 -31.5924 30.8076)
(17.7054 -31.563 32.9122)
(33.8799 18.8724 110.781)
(32.959 16.7678 110.781)
(32.4373 16.7678 111.621)
(32.4373 18.8724 111.906)
(32.4373 26.4123 112.885)
(32.4373 27.2906 112.335)
(32.4373 28.8145 110.781)
(20.212 35.7089 100.258)
(20.2472 35.7089 104.467)
(18.2732 35.7089 108.676)
(20.065 39.918 96.0489)
(20.9746 39.918 100.258)
(21.0158 39.918 104.467)
(18.9567 44.1271 100.258)
(18.6816 44.1271 104.467)
(19.3461 39.918 108.676)
(64.0091 -6.90842 68.6896)
(4.02575 3.08823 11.4515)
(3.87374 3.08823 11.3405)
(6.1303 3.38776 12.9189)
(-20.1736 -15.8528 75.5294)
(4.02575 11.4938 63.9544)
(-13.863 3.17131 55.5362)
(7.70872 15.7156 31.8233)
(5.07803 -22.1465 60.7976)
(10.2789 6.24506 77.634)
(10.3394 6.24506 77.488)
(-19.1222 -10.5914 45.0134)
(13.4963 -15.3266 67.6608)
(13.4963 -15.043 68.1635)
(14.9074 -11.6437 68.6896)
(15.0747 -11.2891 68.6896)
(6.1303 -16.0014 79.7386)
(5.7322 -16.3789 79.7386)
(6.65644 -14.9782 80.7908)
(6.58361 -14.8005 81.317)
(4.67397 -17.4312 84.4738)
(4.55188 -17.6479 84.4738)
(5.07803 -17.0029 84.4738)
(39.8032 25.0589 39.2258)
(40.3293 24.979 39.2258)
(6.1303 -15.9183 83.9477)
(-1.23565 28.2785 102.889)
(1.92119 -29.0063 46.6093)
(1.92119 -29.0159 46.5918)
(6.1303 33.4372 104.993)
(6.1303 33.6043 105.054)
(48.7476 22.5554 41.8559)
(-10.9761 -32.6892 67.6374)
(-11.2323 -32.5679 67.6374)
(43.3768 12.5587 61.3237)
(43.4862 12.5587 61.2631)
(40.9369 12.0326 63.4282)
(14.513 -0.0686035 86.0522)
(14.5485 -0.0686035 86.4319)
(26.4966 -34.8117 13.9872)
(76.8258 -13.7482 32.9122)
(76.6329 -14.6204 32.9122)
(-0.183369 -22.7595 10.8143)
(-0.183369 -22.1665 10.5295)
(-0.183369 -23.2187 11.352)
(5.07803 -12.6959 7.84701)
(4.48634 -12.6959 7.6575)
(7.18258 -12.6959 8.64944)
(6.1303 -12.6959 8.21654)
(9.12551 -12.6959 9.76206)
(8.23486 -12.6959 9.15597)
(9.35599 -11.6437 9.76206)
(9.28714 -12.2577 9.76206)
(9.28714 -11.3537 9.76206)
(10.3394 -10.5914 11.3382)
(9.96201 -10.5914 10.8143)
(10.3394 -10.1488 11.8666)
(9.28714 -9.38791 11.8666)
(9.61605 -9.53911 11.8666)
(9.34781 -9.53911 15.0234)
(9.93184 -9.53911 13.9712)
(-15.9755 -8.15423 33.9612)
(7.42038 5.05753 14.4973)
(-19.1244 -28.4801 70.4863)
(-19.1339 -28.4921 70.1012)
(7.70872 18.8504 51.8139)
(11.4215 -17.9741 69.2158)
(10.0646 -18.8931 71.3728)
(2.97347 -19.0763 79.2124)
(1.92119 -19.7267 79.2124)
(3.11121 -19.0096 79.2124)
(4.02575 -18.4227 79.2124)
(4.55188 -17.9573 79.102)
(3.95757 -18.9445 86.0522)
(3.89456 -18.9147 87.1045)
(1.39121 26.2533 102.356)
(40.8555 15.1408 11.8666)
(41.9078 14.8174 11.8666)
(7.18258 34.4245 105.519)
(7.18258 34.6566 105.77)
(77.6852 -16.9051 30.9946)
(77.6852 -15.8528 31.4306)
(20.4881 -10.6027 68.7032)
(6.21645 8.0279 88.5873)
(7.18258 7.92307 89.7352)
(-3.41793 32.8837 104.543)
(25.0844 5.68698 104.986)
(28.7631 22.8281 27.5479)
(26.9081 6.02052 105.167)
(-2.20833 32.5302 105.545)
(0.868912 -12.6959 6.08858)
(0.23085 -12.6959 5.55294)
(2.97347 -12.6959 7.18915)
(8.26943 -21.1142 18.1803)
(8.04443 -19.0096 18.1803)
(0.549561 36.7611 108.791)
(8.69233 -10.5914 9.76206)
(7.18258 -10.5914 9.16489)
(5.07803 2.03595 21.6132)
(5.07803 -0.0686035 21.1573)
(5.13229 25.1861 83.3448)
(17.7764 -31.581 30.8076)
(36.6464 -35.5611 53.39)
)

// edges

709
(
(56 57)
(57 58)
(59 60)
(61 59)
(62 63)
(64 62)
(65 66)
(66 67)
(68 65)
(69 68)
(70 71)
(72 70)
(58 73)
(73 74)
(75 76)
(77 75)
(67 78)
(79 80)
(81 79)
(82 61)
(60 83)
(84 85)
(86 84)
(63 86)
(87 64)
(76 87)
(88 89)
(89 56)
(90 91)
(92 90)
(93 94)
(94 95)
(96 97)
(97 98)
(99 96)
(100 99)
(101 100)
(102 103)
(104 102)
(105 106)
(106 107)
(108 109)
(110 108)
(111 77)
(112 111)
(113 114)
(115 113)
(116 117)
(117 118)
(119 120)
(120 121)
(122 105)
(123 122)
(124 123)
(98 125)
(103 126)
(126 127)
(128 129)
(129 130)
(131 132)
(133 131)
(74 134)
(135 136)
(137 135)
(138 139)
(139 140)
(141 142)
(142 143)
(144 145)
(145 124)
(146 144)
(147 148)
(91 147)
(149 150)
(150 151)
(152 72)
(153 154)
(154 155)
(156 138)
(157 156)
(158 159)
(160 158)
(161 162)
(163 161)
(164 165)
(148 164)
(165 166)
(167 168)
(168 169)
(170 163)
(171 170)
(172 173)
(173 174)
(175 133)
(176 175)
(177 176)
(132 178)
(179 177)
(180 181)
(182 180)
(130 183)
(183 119)
(184 146)
(185 184)
(186 187)
(187 188)
(189 190)
(136 189)
(190 191)
(192 193)
(194 192)
(107 195)
(195 196)
(196 197)
(198 199)
(200 198)
(201 202)
(162 201)
(202 203)
(204 104)
(205 206)
(206 207)
(208 209)
(209 210)
(210 211)
(212 172)
(169 212)
(213 214)
(214 81)
(174 215)
(211 216)
(217 218)
(219 217)
(220 221)
(221 222)
(151 223)
(223 224)
(224 225)
(226 112)
(227 226)
(228 227)
(229 228)
(230 205)
(231 128)
(232 88)
(233 232)
(114 234)
(234 235)
(235 236)
(125 237)
(237 238)
(238 239)
(239 93)
(95 240)
(159 241)
(241 242)
(243 101)
(244 208)
(245 246)
(247 245)
(203 248)
(249 250)
(250 251)
(140 249)
(252 92)
(253 252)
(181 194)
(254 255)
(255 200)
(256 69)
(257 256)
(258 257)
(259 258)
(260 152)
(261 260)
(262 82)
(263 262)
(264 263)
(265 247)
(266 267)
(267 268)
(85 269)
(134 270)
(143 271)
(271 272)
(273 259)
(274 273)
(275 276)
(277 275)
(191 278)
(278 279)
(280 229)
(281 280)
(282 281)
(283 282)
(284 153)
(285 284)
(166 285)
(270 160)
(242 286)
(286 261)
(287 233)
(288 289)
(290 288)
(291 292)
(292 293)
(294 171)
(295 296)
(296 297)
(298 295)
(299 137)
(300 299)
(301 300)
(216 302)
(246 303)
(304 141)
(305 304)
(306 287)
(307 253)
(308 277)
(309 310)
(311 309)
(312 313)
(109 312)
(314 301)
(315 314)
(316 311)
(199 244)
(317 318)
(318 319)
(193 307)
(215 204)
(71 320)
(269 321)
(322 243)
(323 324)
(325 323)
(326 316)
(197 327)
(327 328)
(328 329)
(329 330)
(251 331)
(332 333)
(333 334)
(335 325)
(321 335)
(279 336)
(336 337)
(338 339)
(339 340)
(341 342)
(343 341)
(276 231)
(344 308)
(121 167)
(345 317)
(319 230)
(83 179)
(155 274)
(346 182)
(347 346)
(348 347)
(349 350)
(351 349)
(313 352)
(353 354)
(355 353)
(356 298)
(357 356)
(302 358)
(358 359)
(360 315)
(361 360)
(362 149)
(363 364)
(365 363)
(310 283)
(366 326)
(367 366)
(368 367)
(369 368)
(370 371)
(372 370)
(297 373)
(330 374)
(374 375)
(375 376)
(376 291)
(293 377)
(377 378)
(378 379)
(379 380)
(324 381)
(272 382)
(350 348)
(337 383)
(383 384)
(385 386)
(386 343)
(387 357)
(388 387)
(389 369)
(390 389)
(320 322)
(384 391)
(391 392)
(392 393)
(394 361)
(395 396)
(396 397)
(398 395)
(303 115)
(393 399)
(400 351)
(401 400)
(381 401)
(402 372)
(399 403)
(403 404)
(404 405)
(289 406)
(406 407)
(127 294)
(248 116)
(118 408)
(408 186)
(409 219)
(373 409)
(218 410)
(410 355)
(405 411)
(240 412)
(412 254)
(413 414)
(414 415)
(416 417)
(418 416)
(411 419)
(419 338)
(334 398)
(420 265)
(421 422)
(423 421)
(424 420)
(80 424)
(425 418)
(342 332)
(397 426)
(426 427)
(225 388)
(382 306)
(427 428)
(380 362)
(429 394)
(359 425)
(417 266)
(268 290)
(407 430)
(78 345)
(340 390)
(431 429)
(352 431)
(430 432)
(428 344)
(433 385)
(371 433)
(178 110)
(331 305)
(432 423)
(364 157)
(434 365)
(422 413)
(188 213)
(415 185)
(435 434)
(222 435)
(354 402)
(207 220)
(236 264)
(26 436)
(436 437)
(438 439)
(440 438)
(441 26)
(442 443)
(443 444)
(28 29)
(27 445)
(2 29)
(30 3)
(4 446)
(3 4)
(4 447)
(447 31)
(4 32)
(448 33)
(33 449)
(450 451)
(452 450)
(453 0)
(454 0)
(455 456)
(457 458)
(459 457)
(460 461)
(462 460)
(463 464)
(465 466)
(467 468)
(469 470)
(471 472)
(472 36)
(36 473)
(473 474)
(475 476)
(477 475)
(478 479)
(479 480)
(5 481)
(482 5)
(6 483)
(481 6)
(484 485)
(486 487)
(488 7)
(489 490)
(490 491)
(492 493)
(494 492)
(495 496)
(496 497)
(498 499)
(500 498)
(501 502)
(503 501)
(504 503)
(505 504)
(506 505)
(507 506)
(508 507)
(8 508)
(8 9)
(9 38)
(39 452)
(39 10)
(10 509)
(8 510)
(511 512)
(513 511)
(514 515)
(516 517)
(518 519)
(520 521)
(522 523)
(524 525)
(526 527)
(34 528)
(444 1)
(29 1)
(2 529)
(530 26)
(531 532)
(533 534)
(535 536)
(537 538)
(539 537)
(540 541)
(541 542)
(542 543)
(544 545)
(546 547)
(548 549)
(550 549)
(551 552)
(552 553)
(554 555)
(556 557)
(558 559)
(560 561)
(562 563)
(564 11)
(11 12)
(565 12)
(41 565)
(42 566)
(13 567)
(568 13)
(569 570)
(571 14)
(15 14)
(572 573)
(574 575)
(576 577)
(43 576)
(578 579)
(486 44)
(7 44)
(35 580)
(581 582)
(6 5)
(37 583)
(584 585)
(586 587)
(588 589)
(45 590)
(590 591)
(592 593)
(594 595)
(596 597)
(597 598)
(598 46)
(16 599)
(600 601)
(602 603)
(604 605)
(605 606)
(607 608)
(609 610)
(611 612)
(612 613)
(614 615)
(616 617)
(618 616)
(619 618)
(620 619)
(621 620)
(17 622)
(623 17)
(624 623)
(625 624)
(626 627)
(628 629)
(630 631)
(632 48)
(50 49)
(633 634)
(48 51)
(47 635)
(636 637)
(638 639)
(640 638)
(641 52)
(52 642)
(643 644)
(15 645)
(646 647)
(648 649)
(650 651)
(652 653)
(599 654)
(16 655)
(655 656)
(656 657)
(657 658)
(659 660)
(53 659)
(658 661)
(662 663)
(664 18)
(665 664)
(666 54)
(19 666)
(53 667)
(19 668)
(669 19)
(40 670)
(668 20)
(671 669)
(672 671)
(673 20)
(674 673)
(675 672)
(676 675)
(677 674)
(678 677)
(679 680)
(681 665)
(682 683)
(684 685)
(685 686)
(687 688)
(689 690)
(17 55)
(691 692)
(692 693)
(694 695)
(695 696)
(697 698)
(698 699)
(700 701)
(699 702)
(701 18)
(703 513)
(512 703)
(704 705)
(27 706)
(30 27)
(28 30)
(31 32)
(707 533)
(534 707)
(520 708)
(539 709)
(709 538)
(550 710)
(710 548)
(711 556)
(557 711)
(712 713)
(21 34)
(714 531)
(532 714)
(715 716)
(716 567)
(717 718)
(719 720)
(721 22)
(22 722)
(723 724)
(725 723)
(726 727)
(586 728)
(37 729)
(730 731)
(732 733)
(734 491)
(734 489)
(735 736)
(737 738)
(608 739)
(740 741)
(742 440)
(439 742)
(743 744)
(38 39)
(745 746)
(747 745)
(748 749)
(750 751)
(752 753)
(754 755)
(756 754)
(757 758)
(40 757)
(759 40)
(760 761)
(762 763)
(708 521)
(458 764)
(523 493)
(494 522)
(21 528)
(29 529)
(26 437)
(441 530)
(33 765)
(766 767)
(768 462)
(465 769)
(770 468)
(44 488)
(487 44)
(771 772)
(773 771)
(774 773)
(775 580)
(35 774)
(776 36)
(471 776)
(777 474)
(478 23)
(476 23)
(477 23)
(480 23)
(482 778)
(483 778)
(779 780)
(781 782)
(783 784)
(785 573)
(49 632)
(47 50)
(48 786)
(787 51)
(551 788)
(641 24)
(52 24)
(24 642)
(789 41)
(554 790)
(791 42)
(45 792)
(793 794)
(795 793)
(749 795)
(46 25)
(43 25)
(796 797)
(603 798)
(799 800)
(53 54)
(801 802)
(625 55)
(622 55)
(640 803)
(804 686)
(684 804)
(630 805)
)

// concaveStart mixedStart nonFeatureStart
21 26 56
// internalStart flatStart openStart multipleStart
593 709 709 709
// normals

1220
(
(0 0 -1)
(-0.933976 -0.28512 -0.215394)
(-0.966563 0.126758 -0.222909)
(-0 0 -1)
(0.877013 -0.203758 -0.435122)
(0.886226 0.145862 -0.439691)
(0 0 -1)
(-0.491434 -0.828542 -0.268347)
(-0.214968 -0.929106 -0.300918)
(0 0 -1)
(-0.891602 -0.357128 -0.278396)
(-0.95182 0.075582 -0.297198)
(0 0 -1)
(-0.837332 -0.431166 -0.336111)
(0 0 -1)
(-0.765186 -0.618643 -0.178245)
(0 -0 -1)
(-0.407178 0.826922 -0.387822)
(-0.655296 0.736206 -0.169079)
(0 -0 -1)
(-0.951804 0.164303 -0.258984)
(-0.854906 0.463707 -0.232619)
(0 0 -1)
(-0.180307 -0.948667 -0.259845)
(0.0361089 -0.963846 -0.264003)
(0 0 -1)
(-0.999957 -0.00359629 -0.0085536)
(-0 -0 -1)
(0.556058 0.721587 0.412446)
(0.366325 0.784735 0.499997)
(-0 0 -1)
(0.874145 0.166432 -0.456257)